Version 4
SHEET 1 1272 680
WIRE 800 -96 688 -96
WIRE 848 -96 800 -96
WIRE 944 -96 912 -96
WIRE 1008 -96 944 -96
WIRE 1056 -96 1008 -96
WIRE 1152 -96 1056 -96
WIRE 688 -16 688 -96
WIRE 800 -16 800 -96
WIRE 944 -16 944 -96
WIRE 1056 -16 1056 -96
WIRE 304 96 240 96
WIRE 464 96 432 96
WIRE 688 96 688 48
WIRE 688 96 592 96
WIRE 800 96 800 48
WIRE 800 96 688 96
WIRE 944 112 944 48
WIRE 1056 112 1056 64
WIRE 16 224 -64 224
WIRE 64 224 16 224
WIRE 192 224 64 224
WIRE 224 224 192 224
WIRE 240 224 240 96
WIRE 240 224 224 224
WIRE 272 224 240 224
WIRE 464 224 464 96
WIRE 464 224 416 224
WIRE 592 224 592 96
WIRE 592 224 464 224
WIRE -64 240 -64 224
WIRE 64 256 64 224
WIRE 192 256 192 224
WIRE 272 256 192 256
WIRE 640 256 416 256
WIRE 704 256 640 256
WIRE 752 256 704 256
WIRE 640 272 640 256
WIRE 752 272 752 256
WIRE 272 288 192 288
WIRE 496 288 416 288
WIRE 64 336 64 320
WIRE 192 336 192 288
WIRE 192 336 64 336
WIRE -64 352 -64 320
WIRE 64 352 64 336
WIRE 640 368 640 336
WIRE 752 384 752 352
WIRE 224 400 224 224
WIRE 496 400 496 288
WIRE 496 400 224 400
FLAG 640 368 0
FLAG 64 352 0
FLAG -64 352 0
FLAG 704 256 out
FLAG 16 224 in
FLAG 464 96 sw
FLAG 944 112 0
FLAG 1008 -96 cp_out1
FLAG 1056 112 0
FLAG 752 384 0
SYMBOL Cap 48 256 R0
SYMATTR InstName C1
SYMATTR Value 1.6µ
SYMBOL Cap 624 272 R0
SYMATTR InstName C2
SYMATTR Value 7.14µ
SYMBOL Voltage -64 224 R0
WINDOW 3 -53 53 Left 2
SYMATTR Value 5
SYMATTR InstName V1
SYMATTR SpiceLine Rser=1m
SYMBOL LSXND5050YKL220MMG 368 96 R0
WINDOW 38 0 -43 Center 2
SYMATTR InstName U2
SYMBOL TLV61046A_TRANS 336 256 R0
SYMATTR InstName U1
SYMBOL Cap 672 -16 R0
SYMATTR InstName C3
SYMATTR Value 1µ
SYMBOL Diode 816 48 R180
WINDOW 0 24 64 Left 2
WINDOW 3 24 0 Left 2
SYMATTR InstName D1
SYMBOL Diode 848 -80 R270
WINDOW 0 32 32 VTop 2
WINDOW 3 0 32 VBottom 2
SYMATTR InstName D2
SYMBOL Cap 928 -16 R0
SYMATTR InstName C4
SYMATTR Value 1µ
SYMBOL Res 1040 -32 R0
SYMATTR InstName R2
SYMATTR Value 1.8k
SYMBOL Res 736 256 R0
SYMATTR InstName R1
SYMATTR Value 200
TEXT -128 472 Left 2 !.tran 12m
TEXT 648 552 Left 2 ;.step param X list 10u 20u
TEXT 48 464 Left 2 !.inc TLV61046A_TRANS.lib
TEXT 232 0 Left 2 ;NRS5040T220MMGK spice model\n22uH
