* LSXPD2020KKTR47_0G     SPICE MODEL  ( General Type )
*--------------------------------------------------------------------------------------------------------
* Model Generated by TAIYO YUDEN Corporation (http://www.ty-top.com)
* Version 2.0
* TAIYO YUDEN Control No. 180111NI43EB-FBB
* Copyright(c) 2012 TAIYO YUDEN CO.,LTD. All Rights Reserved.
*--------------------------------------------------------------------------------------------------------
*
* Product Description (link to TY-COMPAS)
* https://ds.yuden.co.jp/TYCOMPAS/or/detail?pn=LSXPD2020KKTR47N0G&u=M
*
* Products Name : Inductors
*
* Characteristics :
*     Inductance : 0.47 uH , SRF(min) : -Hz , DC Resistance(max) : 0.0624 Ohm
*     Rated Current : Saturation :2100 mA , Temp Rise : 2000 mA
*     Case Size : 2.0 x 2.0 / 0.079 x 0.079 [mm/inch] , Thickness : 1 / 0.039 [mm/inch]
*     (Conditions: Temperature = 25 degC , DC Bias Current/Voltage = 0A / 0V)
*
* External Node Assignments :
*
*  1  o---GGG---o  2
*
*--------------------------------------------------------------------------------------------------------
.SubCkt LSXPD2020KKTR47_0G 1 2
****************************
Rdc 1 101 0.052
L0 101 111 0.46542u
L1 111 121 0.039239u
R1 111 121 0.1354
L2 121 2 0.048168u
R2 121 2 3.5079
Rp 101 2 1.576k
Cp 101 2 0.59349p
****************************
.ends LSXPD2020KKTR47_0G



* LSXPD2020KKTR68_0G     SPICE MODEL  ( General Type )
*--------------------------------------------------------------------------------------------------------
* Model Generated by TAIYO YUDEN Corporation (http://www.ty-top.com)
* Version 2.0
* TAIYO YUDEN Control No. 180111NI43EB-FBB
* Copyright(c) 2012 TAIYO YUDEN CO.,LTD. All Rights Reserved.
*--------------------------------------------------------------------------------------------------------
*
* Product Description (link to TY-COMPAS)
* https://ds.yuden.co.jp/TYCOMPAS/or/detail?pn=LSXPD2020KKTR68N0G&u=M
*
* Products Name : Inductors
*
* Characteristics :
*     Inductance : 0.68 uH , SRF(min) : -Hz , DC Resistance(max) : 0.072 Ohm
*     Rated Current : Saturation :1850 mA , Temp Rise : 1850 mA
*     Case Size : 2.0 x 2.0 / 0.079 x 0.079 [mm/inch] , Thickness : 1 / 0.039 [mm/inch]
*     (Conditions: Temperature = 25 degC , DC Bias Current/Voltage = 0A / 0V)
*
* External Node Assignments :
*
*  1  o---GGG---o  2
*
*--------------------------------------------------------------------------------------------------------
.SubCkt LSXPD2020KKTR68_0G 1 2
****************************
Rdc 1 101 0.06
L0 101 111 0.60564u
L1 111 121 0.049939u
R1 111 121 0.1548
L2 121 2 0.061159u
R2 121 2 3.6095
Rp 101 2 2.1057k
Cp 101 2 0.53994p
****************************
.ends LSXPD2020KKTR68_0G



* LSXPD2020KKT1R0_0G     SPICE MODEL  ( General Type )
*--------------------------------------------------------------------------------------------------------
* Model Generated by TAIYO YUDEN Corporation (http://www.ty-top.com)
* Version 2.0
* TAIYO YUDEN Control No. 180111NI43EB-FBB
* Copyright(c) 2012 TAIYO YUDEN CO.,LTD. All Rights Reserved.
*--------------------------------------------------------------------------------------------------------
*
* Product Description (link to TY-COMPAS)
* https://ds.yuden.co.jp/TYCOMPAS/or/detail?pn=LSXPD2020KKT1R0N0G&u=M
*
* Products Name : Inductors
*
* Characteristics :
*     Inductance : 1.0 uH , SRF(min) : -Hz , DC Resistance(max) : 0.096 Ohm
*     Rated Current : Saturation :1550 mA , Temp Rise : 1600 mA
*     Case Size : 2.0 x 2.0 / 0.079 x 0.079 [mm/inch] , Thickness : 1 / 0.039 [mm/inch]
*     (Conditions: Temperature = 25 degC , DC Bias Current/Voltage = 0A / 0V)
*
* External Node Assignments :
*
*  1  o---GGG---o  2
*
*--------------------------------------------------------------------------------------------------------
.SubCkt LSXPD2020KKT1R0_0G 1 2
****************************
Rdc 1 101 0.08
L0 101 111 0.91198u
L1 111 121 0.058255u
R1 111 121 0.3224
L2 121 2 0.087152u
R2 121 2 4.3389
Rp 101 2 2.5011k
Cp 101 2 0.64116p
****************************
.ends LSXPD2020KKT1R0_0G



* LSXPD2020KKT1R5_0G     SPICE MODEL  ( General Type )
*--------------------------------------------------------------------------------------------------------
* Model Generated by TAIYO YUDEN Corporation (http://www.ty-top.com)
* Version 2.0
* TAIYO YUDEN Control No. 180111NI43EB-FBB
* Copyright(c) 2012 TAIYO YUDEN CO.,LTD. All Rights Reserved.
*--------------------------------------------------------------------------------------------------------
*
* Product Description (link to TY-COMPAS)
* https://ds.yuden.co.jp/TYCOMPAS/or/detail?pn=LSXPD2020KKT1R5M0G&u=M
*
* Products Name : Inductors
*
* Characteristics :
*     Inductance : 1.5 uH , SRF(min) : -Hz , DC Resistance(max) : 0.12 Ohm
*     Rated Current : Saturation :1350 mA , Temp Rise : 1450 mA
*     Case Size : 2.0 x 2.0 / 0.079 x 0.079 [mm/inch] , Thickness : 1 / 0.039 [mm/inch]
*     (Conditions: Temperature = 25 degC , DC Bias Current/Voltage = 0A / 0V)
*
* External Node Assignments :
*
*  1  o---GGG---o  2
*
*--------------------------------------------------------------------------------------------------------
.SubCkt LSXPD2020KKT1R5_0G 1 2
****************************
Rdc 1 101 0.1
L0 101 111 1.2777u
L1 111 121 0.16125u
R1 111 121 0.2148
L2 121 2 0.15446u
R2 121 2 4.169
Rp 101 2 2.8221k
Cp 101 2 0.65494p
****************************
.ends LSXPD2020KKT1R5_0G



* LSXPD2020KKT2R2_0G     SPICE MODEL  ( General Type )
*--------------------------------------------------------------------------------------------------------
* Model Generated by TAIYO YUDEN Corporation (http://www.ty-top.com)
* Version 2.0
* TAIYO YUDEN Control No. 180111NI43EB-FBB
* Copyright(c) 2012 TAIYO YUDEN CO.,LTD. All Rights Reserved.
*--------------------------------------------------------------------------------------------------------
*
* Product Description (link to TY-COMPAS)
* https://ds.yuden.co.jp/TYCOMPAS/or/detail?pn=LSXPD2020KKT2R2M0G&u=M
*
* Products Name : Inductors
*
* Characteristics :
*     Inductance : 2.2 uH , SRF(min) : -Hz , DC Resistance(max) : 0.21 Ohm
*     Rated Current : Saturation :1100 mA , Temp Rise : 1100 mA
*     Case Size : 2.0 x 2.0 / 0.079 x 0.079 [mm/inch] , Thickness : 1 / 0.039 [mm/inch]
*     (Conditions: Temperature = 25 degC , DC Bias Current/Voltage = 0A / 0V)
*
* External Node Assignments :
*
*  1  o---GGG---o  2
*
*--------------------------------------------------------------------------------------------------------
.SubCkt LSXPD2020KKT2R2_0G 1 2
****************************
Rdc 1 101 0.175
L0 101 111 1.9438u
L1 111 121 0.15003u
R1 111 121 0.2856
L2 121 2 0.14076u
R2 121 2 4.4489
Rp 101 2 3.1328k
Cp 101 2 0.64431p
****************************
.ends LSXPD2020KKT2R2_0G



* LSXPD2020KKT3R3_0G     SPICE MODEL  ( General Type )
*--------------------------------------------------------------------------------------------------------
* Model Generated by TAIYO YUDEN Corporation (http://www.ty-top.com)
* Version 2.0
* TAIYO YUDEN Control No. 180111NI43EB-FBB
* Copyright(c) 2012 TAIYO YUDEN CO.,LTD. All Rights Reserved.
*--------------------------------------------------------------------------------------------------------
*
* Product Description (link to TY-COMPAS)
* https://ds.yuden.co.jp/TYCOMPAS/or/detail?pn=LSXPD2020KKT3R3M0G&u=M
*
* Products Name : Inductors
*
* Characteristics :
*     Inductance : 3.3 uH , SRF(min) : -Hz , DC Resistance(max) : 0.3 Ohm
*     Rated Current : Saturation :880 mA , Temp Rise : 1000 mA
*     Case Size : 2.0 x 2.0 / 0.079 x 0.079 [mm/inch] , Thickness : 1 / 0.039 [mm/inch]
*     (Conditions: Temperature = 25 degC , DC Bias Current/Voltage = 0A / 0V)
*
* External Node Assignments :
*
*  1  o---GGG---o  2
*
*--------------------------------------------------------------------------------------------------------
.SubCkt LSXPD2020KKT3R3_0G 1 2
****************************
Rdc 1 101 0.25
L0 101 111 2.8938u
L1 111 121 0.21256u
R1 111 121 0.3862
L2 121 2 0.1756u
R2 121 2 4.3457
Rp 101 2 4k
Cp 101 2 0.63126p
****************************
.ends LSXPD2020KKT3R3_0G



* LSXPD2020KKT4R7_0G     SPICE MODEL  ( General Type )
*--------------------------------------------------------------------------------------------------------
* Model Generated by TAIYO YUDEN Corporation (http://www.ty-top.com)
* Version 2.0
* TAIYO YUDEN Control No. 180111NI43EB-FBB
* Copyright(c) 2012 TAIYO YUDEN CO.,LTD. All Rights Reserved.
*--------------------------------------------------------------------------------------------------------
*
* Product Description (link to TY-COMPAS)
* https://ds.yuden.co.jp/TYCOMPAS/or/detail?pn=LSXPD2020KKT4R7M0G&u=M
*
* Products Name : Inductors
*
* Characteristics :
*     Inductance : 4.7 uH , SRF(min) : -Hz , DC Resistance(max) : 0.384 Ohm
*     Rated Current : Saturation :760 mA , Temp Rise : 820 mA
*     Case Size : 2.0 x 2.0 / 0.079 x 0.079 [mm/inch] , Thickness : 1 / 0.039 [mm/inch]
*     (Conditions: Temperature = 25 degC , DC Bias Current/Voltage = 0A / 0V)
*
* External Node Assignments :
*
*  1  o---GGG---o  2
*
*--------------------------------------------------------------------------------------------------------
.SubCkt LSXPD2020KKT4R7_0G 1 2
****************************
Rdc 1 101 0.32
L0 101 111 4.1551u
L1 111 121 0.39418u
R1 111 121 0.4923
L2 121 2 0.18558u
R2 121 2 3.2338
Rp 101 2 3.9099k
Cp 101 2 0.60304p
****************************
.ends LSXPD2020KKT4R7_0G



* LSXPD2020MKT1R0_0G     SPICE MODEL  ( General Type )
*--------------------------------------------------------------------------------------------------------
* Model Generated by TAIYO YUDEN Corporation (http://www.ty-top.com)
* Version 2.0
* TAIYO YUDEN Control No. 180111NI43EB-FBB
* Copyright(c) 2011 TAIYO YUDEN CO.,LTD. All Rights Reserved.
*--------------------------------------------------------------------------------------------------------
*
* Product Description (link to TY-COMPAS)
* https://ds.yuden.co.jp/TYCOMPAS/or/detail?pn=LSXPD2020MKT1R0N0G&u=M
*
* Products Name : Inductors
*
* Characteristics :
*     Inductance : 1.0 uH , SRF(min) : -Hz , DC Resistance(max) : 0.0876 Ohm
*     Rated Current : Saturation :2200 mA , Temp Rise : 1650 mA
*     Case Size : 2.0 x 2.0 / 0.079 x 0.079 [mm/inch] , Thickness : 1.2 / 0.047 [mm/inch]
*     (Conditions: Temperature = 25 degC , DC Bias Current/Voltage = 0A / 0V)
*
* External Node Assignments :
*
*  1  o---GGG---o  2
*
*--------------------------------------------------------------------------------------------------------
.SubCkt LSXPD2020MKT1R0_0G 1 2
****************************
Rdc 1 101 0.073
L0 101 111 0.86691u
L1 111 121 0.14648u
R1 111 121 0.1191
L2 121 2 0.056603u
R2 121 2 0.7988
Rp 101 2 1.5k
Cp 101 2 0.75p
****************************
.ends LSXPD2020MKT1R0_0G



* LSXND2020MKT1R0_0G     SPICE MODEL  ( General Type )
*--------------------------------------------------------------------------------------------------------
* Model Generated by TAIYO YUDEN Corporation (http://www.ty-top.com)
* Version 2.0
* TAIYO YUDEN Control No. 180111NI43EB-FBB
* Copyright(c) 2011 TAIYO YUDEN CO.,LTD. All Rights Reserved.
*--------------------------------------------------------------------------------------------------------
*
* Product Description (link to TY-COMPAS)
* https://ds.yuden.co.jp/TYCOMPAS/or/detail?pn=LSXND2020MKT1R0N0G&u=M
*
* Products Name : Inductors
*
* Characteristics :
*     Inductance : 1.0 uH , SRF(min) : -Hz , DC Resistance(max) : 0.084 Ohm
*     Rated Current : Saturation :1900 mA , Temp Rise : 1700 mA
*     Case Size : 2.0 x 2.0 / 0.079 x 0.079 [mm/inch] , Thickness : 1.2 / 0.047 [mm/inch]
*     (Conditions: Temperature = 25 degC , DC Bias Current/Voltage = 0A / 0V)
*
* External Node Assignments :
*
*  1  o---GGG---o  2
*
*--------------------------------------------------------------------------------------------------------
.SubCkt LSXND2020MKT1R0_0G 1 2
****************************
Rdc 1 101 0.07
L0 101 111 0.93881u
L1 111 121 0.103u
R1 111 121 0.133
L2 121 2 0.05819u
R2 121 2 2.7508
Rp 101 2 1.9k
Cp 101 2 0.96p
****************************
.ends LSXND2020MKT1R0_0G



* LSXND2020MKT1R5_0G     SPICE MODEL  ( General Type )
*--------------------------------------------------------------------------------------------------------
* Model Generated by TAIYO YUDEN Corporation (http://www.ty-top.com)
* Version 2.0
* TAIYO YUDEN Control No. 180111NI43EB-FBB
* Copyright(c) 2011 TAIYO YUDEN CO.,LTD. All Rights Reserved.
*--------------------------------------------------------------------------------------------------------
*
* Product Description (link to TY-COMPAS)
* https://ds.yuden.co.jp/TYCOMPAS/or/detail?pn=LSXND2020MKT1R5N0G&u=M
*
* Products Name : Inductors
*
* Characteristics :
*     Inductance : 1.5 uH , SRF(min) : -Hz , DC Resistance(max) : 0.108 Ohm
*     Rated Current : Saturation :1650 mA , Temp Rise : 1500 mA
*     Case Size : 2.0 x 2.0 / 0.079 x 0.079 [mm/inch] , Thickness : 1.2 / 0.047 [mm/inch]
*     (Conditions: Temperature = 25 degC , DC Bias Current/Voltage = 0A / 0V)
*
* External Node Assignments :
*
*  1  o---GGG---o  2
*
*--------------------------------------------------------------------------------------------------------
.SubCkt LSXND2020MKT1R5_0G 1 2
****************************
Rdc 1 101 0.09
L0 101 111 1.3241u
L1 111 121 0.14608u
R1 111 121 0.192
L2 121 2 0.089856u
R2 121 2 3.168
Rp 101 2 2.5k
Cp 101 2 0.88p
****************************
.ends LSXND2020MKT1R5_0G



* LSXPD2020MKT1R5_0G     SPICE MODEL  ( General Type )
*--------------------------------------------------------------------------------------------------------
* Model Generated by TAIYO YUDEN Corporation (http://www.ty-top.com)
* Version 2.0
* TAIYO YUDEN Control No. 180111NI43EB-FBB
* Copyright(c) 2011 TAIYO YUDEN CO.,LTD. All Rights Reserved.
*--------------------------------------------------------------------------------------------------------
*
* Product Description (link to TY-COMPAS)
* https://ds.yuden.co.jp/TYCOMPAS/or/detail?pn=LSXPD2020MKT1R5N0G&u=M
*
* Products Name : Inductors
*
* Characteristics :
*     Inductance : 1.5 uH , SRF(min) : -Hz , DC Resistance(max) : 0.12 Ohm
*     Rated Current : Saturation :1800 mA , Temp Rise : 1400 mA
*     Case Size : 2.0 x 2.0 / 0.079 x 0.079 [mm/inch] , Thickness : 1.2 / 0.047 [mm/inch]
*     (Conditions: Temperature = 25 degC , DC Bias Current/Voltage = 0A / 0V)
*
* External Node Assignments :
*
*  1  o---GGG---o  2
*
*--------------------------------------------------------------------------------------------------------
.SubCkt LSXPD2020MKT1R5_0G 1 2
****************************
Rdc 1 101 0.1
L0 101 111 1.2509u
L1 111 121 0.1129u
R1 111 121 0.1497
L2 121 2 0.076176u
R2 121 2 1.1374
Rp 101 2 2.08k
Cp 101 2 0.97p
****************************
.ends LSXPD2020MKT1R5_0G



* LSXND2020MKT2R2_0G     SPICE MODEL  ( General Type )
*--------------------------------------------------------------------------------------------------------
* Model Generated by TAIYO YUDEN Corporation (http://www.ty-top.com)
* Version 2.0
* TAIYO YUDEN Control No. 180111NI43EB-FBB
* Copyright(c) 2011 TAIYO YUDEN CO.,LTD. All Rights Reserved.
*--------------------------------------------------------------------------------------------------------
*
* Product Description (link to TY-COMPAS)
* https://ds.yuden.co.jp/TYCOMPAS/or/detail?pn=LSXND2020MKT2R2M0G&u=M
*
* Products Name : Inductors
*
* Characteristics :
*     Inductance : 2.2 uH , SRF(min) : -Hz , DC Resistance(max) : 0.129 Ohm
*     Rated Current : Saturation :1350 mA , Temp Rise : 1370 mA
*     Case Size : 2.0 x 2.0 / 0.079 x 0.079 [mm/inch] , Thickness : 1.2 / 0.047 [mm/inch]
*     (Conditions: Temperature = 25 degC , DC Bias Current/Voltage = 0A / 0V)
*
* External Node Assignments :
*
*  1  o---GGG---o  2
*
*--------------------------------------------------------------------------------------------------------
.SubCkt LSXND2020MKT2R2_0G 1 2
****************************
Rdc 1 101 0.107
L0 101 111 1.7823u
L1 111 121 0.16464u
R1 111 121 0.243
L2 121 2 0.15309u
R2 121 2 4.8843
Rp 101 2 3.16k
Cp 101 2 1.04p
****************************
.ends LSXND2020MKT2R2_0G



* LSXPD2020MKT2R2_0G     SPICE MODEL  ( General Type )
*--------------------------------------------------------------------------------------------------------
* Model Generated by TAIYO YUDEN Corporation (http://www.ty-top.com)
* Version 2.0
* TAIYO YUDEN Control No. 180111NI43EB-FBB
* Copyright(c) 2011 TAIYO YUDEN CO.,LTD. All Rights Reserved.
*--------------------------------------------------------------------------------------------------------
*
* Product Description (link to TY-COMPAS)
* https://ds.yuden.co.jp/TYCOMPAS/or/detail?pn=LSXPD2020MKT2R2M0G&u=M
*
* Products Name : Inductors
*
* Characteristics :
*     Inductance : 2.2 uH , SRF(min) : -Hz , DC Resistance(max) : 0.155 Ohm
*     Rated Current : Saturation :1600 mA , Temp Rise : 1200 mA
*     Case Size : 2.0 x 2.0 / 0.079 x 0.079 [mm/inch] , Thickness : 1.2 / 0.047 [mm/inch]
*     (Conditions: Temperature = 25 degC , DC Bias Current/Voltage = 0A / 0V)
*
* External Node Assignments :
*
*  1  o---GGG---o  2
*
*--------------------------------------------------------------------------------------------------------
.SubCkt LSXPD2020MKT2R2_0G 1 2
****************************
Rdc 1 101 0.129
L0 101 111 1.8209u
L1 111 121 0.18166u
R1 111 121 0.2691
L2 121 2 0.15746u
R2 121 2 3.5502
Rp 101 2 3.9k
Cp 101 2 1.02p
****************************
.ends LSXPD2020MKT2R2_0G



* LSXND2020MKT3R3_0G     SPICE MODEL  ( General Type )
*--------------------------------------------------------------------------------------------------------
* Model Generated by TAIYO YUDEN Corporation (http://www.ty-top.com)
* Version 2.0
* TAIYO YUDEN Control No. 180111NI43EB-FBB
* Copyright(c) 2011 TAIYO YUDEN CO.,LTD. All Rights Reserved.
*--------------------------------------------------------------------------------------------------------
*
* Product Description (link to TY-COMPAS)
* https://ds.yuden.co.jp/TYCOMPAS/or/detail?pn=LSXND2020MKT3R3M0G&u=M
*
* Products Name : Inductors
*
* Characteristics :
*     Inductance : 3.3 uH , SRF(min) : -Hz , DC Resistance(max) : 0.228 Ohm
*     Rated Current : Saturation :1000 mA , Temp Rise : 1020 mA
*     Case Size : 2.0 x 2.0 / 0.079 x 0.079 [mm/inch] , Thickness : 1.2 / 0.047 [mm/inch]
*     (Conditions: Temperature = 25 degC , DC Bias Current/Voltage = 0A / 0V)
*
* External Node Assignments :
*
*  1  o---GGG---o  2
*
*--------------------------------------------------------------------------------------------------------
.SubCkt LSXND2020MKT3R3_0G 1 2
****************************
Rdc 1 101 0.19
L0 101 111 3.1344u
L1 111 121 0.24606u
R1 111 121 0.4259
L2 121 2 0.25949u
R2 121 2 9.9806
Rp 101 2 6.03k
Cp 101 2 1p
****************************
.ends LSXND2020MKT3R3_0G



* LSXPD2020MKT3R3_0G     SPICE MODEL  ( General Type )
*--------------------------------------------------------------------------------------------------------
* Model Generated by TAIYO YUDEN Corporation (http://www.ty-top.com)
* Version 2.0
* TAIYO YUDEN Control No. 180111NI43EB-FBB
* Copyright(c) 2011 TAIYO YUDEN CO.,LTD. All Rights Reserved.
*--------------------------------------------------------------------------------------------------------
*
* Product Description (link to TY-COMPAS)
* https://ds.yuden.co.jp/TYCOMPAS/or/detail?pn=LSXPD2020MKT3R3M0G&u=M
*
* Products Name : Inductors
*
* Characteristics :
*     Inductance : 3.3 uH , SRF(min) : -Hz , DC Resistance(max) : 0.273 Ohm
*     Rated Current : Saturation :1250 mA , Temp Rise : 900 mA
*     Case Size : 2.0 x 2.0 / 0.079 x 0.079 [mm/inch] , Thickness : 1.2 / 0.047 [mm/inch]
*     (Conditions: Temperature = 25 degC , DC Bias Current/Voltage = 0A / 0V)
*
* External Node Assignments :
*
*  1  o---GGG---o  2
*
*--------------------------------------------------------------------------------------------------------
.SubCkt LSXPD2020MKT3R3_0G 1 2
****************************
Rdc 1 101 0.227
L0 101 111 2.7534u
L1 111 121 0.34099u
R1 111 121 0.5018
L2 121 2 0.23562u
R2 121 2 10.614
Rp 101 2 8.1k
Cp 101 2 0.94p
****************************
.ends LSXPD2020MKT3R3_0G



* LSXND2020MKT4R7_0G     SPICE MODEL  ( General Type )
*--------------------------------------------------------------------------------------------------------
* Model Generated by TAIYO YUDEN Corporation (http://www.ty-top.com)
* Version 2.0
* TAIYO YUDEN Control No. 180111NI43EB-FBB
* Copyright(c) 2011 TAIYO YUDEN CO.,LTD. All Rights Reserved.
*--------------------------------------------------------------------------------------------------------
*
* Product Description (link to TY-COMPAS)
* https://ds.yuden.co.jp/TYCOMPAS/or/detail?pn=LSXND2020MKT4R7M0G&u=M
*
* Products Name : Inductors
*
* Characteristics :
*     Inductance : 4.7 uH , SRF(min) : -Hz , DC Resistance(max) : 0.29 Ohm
*     Rated Current : Saturation :900 mA , Temp Rise : 910 mA
*     Case Size : 2.0 x 2.0 / 0.079 x 0.079 [mm/inch] , Thickness : 1.2 / 0.047 [mm/inch]
*     (Conditions: Temperature = 25 degC , DC Bias Current/Voltage = 0A / 0V)
*
* External Node Assignments :
*
*  1  o---GGG---o  2
*
*--------------------------------------------------------------------------------------------------------
.SubCkt LSXND2020MKT4R7_0G 1 2
****************************
Rdc 1 101 0.241
L0 101 111 3.9451u
L1 111 121 0.33461u
R1 111 121 0.5212
L2 121 2 0.31028u
R2 121 2 11.83
Rp 101 2 7.35k
Cp 101 2 0.96p
****************************
.ends LSXND2020MKT4R7_0G



* LSXPD2020MKT4R7_0G     SPICE MODEL  ( General Type )
*--------------------------------------------------------------------------------------------------------
* Model Generated by TAIYO YUDEN Corporation (http://www.ty-top.com)
* Version 2.0
* TAIYO YUDEN Control No. 180111NI43EB-FBB
* Copyright(c) 2011 TAIYO YUDEN CO.,LTD. All Rights Reserved.
*--------------------------------------------------------------------------------------------------------
*
* Product Description (link to TY-COMPAS)
* https://ds.yuden.co.jp/TYCOMPAS/or/detail?pn=LSXPD2020MKT4R7M0G&u=M
*
* Products Name : Inductors
*
* Characteristics :
*     Inductance : 4.7 uH , SRF(min) : -Hz , DC Resistance(max) : 0.39 Ohm
*     Rated Current : Saturation :1100 mA , Temp Rise : 750 mA
*     Case Size : 2.0 x 2.0 / 0.079 x 0.079 [mm/inch] , Thickness : 1.2 / 0.047 [mm/inch]
*     (Conditions: Temperature = 25 degC , DC Bias Current/Voltage = 0A / 0V)
*
* External Node Assignments :
*
*  1  o---GGG---o  2
*
*--------------------------------------------------------------------------------------------------------
.SubCkt LSXPD2020MKT4R7_0G 1 2
****************************
Rdc 1 101 0.325
L0 101 111 4.0878u
L1 111 121 0.40284u
R1 111 121 0.7611
L2 121 2 0.29938u
R2 121 2 11.793
Rp 101 2 9.6k
Cp 101 2 1.05p
****************************
.ends LSXPD2020MKT4R7_0G



* LSXNE2424KKTR68_N     SPICE MODEL  ( General Type )
*--------------------------------------------------------------------------------------------------------
* Model Generated by TAIYO YUDEN Corporation (http://www.ty-top.com)
* Version 3.0
* TAIYO YUDEN Control No. 180111NI43EB-FBB
* Copyright(c) 2010 TAIYO YUDEN CO.,LTD. All Rights Reserved.
*--------------------------------------------------------------------------------------------------------
*
* Product Description (link to TY-COMPAS)
* https://ds.yuden.co.jp/TYCOMPAS/or/detail?pn=LSXNE2424KKTR68NN&u=M
*
* Products Name : Inductors
*
* Characteristics :
*     Inductance : 0.68 uH , SRF(min) : 120 MHz , DC Resistance(max) : 0.072 Ohm
*     Rated Current : Saturation :2200 mA , Temp Rise : 1570 mA
*     Case Size : 2.4 x 2.4 / 0.094 x 0.094 [mm/inch] , Thickness : 1 / 0.039 [mm/inch]
*     (Conditions: Temperature = 25 degC , DC Bias Current/Voltage = 0A / 0V)
*
* External Node Assignments :
*
*  1  o---GGG---o  2
*
*--------------------------------------------------------------------------------------------------------
.SubCkt LSXNE2424KKTR68_N 1 2
****************************
Rdc 1 101 0.06
L0 101 111 0.50983u
L1 111 121 0.010816u
R1 111 121 0.0264
L2 121 131 0.053824u
R2 121 131 6.0552
L3 131 2 0.065536u
R3 131 2 32.768
Rp 101 2 1.37k
Cp 101 2 0.798p
****************************
.ends LSXNE2424KKTR68_N



* LSXNE2424KKT1R0_N     SPICE MODEL  ( General Type )
*--------------------------------------------------------------------------------------------------------
* Model Generated by TAIYO YUDEN Corporation (http://www.ty-top.com)
* Version 3.0
* TAIYO YUDEN Control No. 180111NI43EB-FBB
* Copyright(c) 2008 TAIYO YUDEN CO.,LTD. All Rights Reserved.
*--------------------------------------------------------------------------------------------------------
*
* Product Description (link to TY-COMPAS)
* https://ds.yuden.co.jp/TYCOMPAS/or/detail?pn=LSXNE2424KKT1R0NN&u=M
*
* Products Name : Inductors
*
* Characteristics :
*     Inductance : 1.0 uH , SRF(min) : 106 MHz , DC Resistance(max) : 0.084 Ohm
*     Rated Current : Saturation :1800 mA , Temp Rise : 1410 mA
*     Case Size : 2.4 x 2.4 / 0.094 x 0.094 [mm/inch] , Thickness : 1 / 0.039 [mm/inch]
*     (Conditions: Temperature = 25 degC , DC Bias Current/Voltage = 0A / 0V)
*
* External Node Assignments :
*
*  1  o---GGG---o  2
*
*--------------------------------------------------------------------------------------------------------
.SubCkt LSXNE2424KKT1R0_N 1 2
****************************
Rdc 1 101 0.07
L0 101 111 0.73242u
L1 111 121 0.01089u
R1 111 121 0.0678
L2 121 131 0.075686u
R2 121 131 6.5595
L3 131 2 0.081u
R3 131 2 36.99
Rp 101 2 1.852k
Cp 101 2 0.8p
****************************
.ends LSXNE2424KKT1R0_N



* LSXNE2424KKT1R5_N     SPICE MODEL  ( General Type )
*--------------------------------------------------------------------------------------------------------
* Model Generated by TAIYO YUDEN Corporation (http://www.ty-top.com)
* Version 3.0
* TAIYO YUDEN Control No. 180111NI43EB-FBB
* Copyright(c) 2008 TAIYO YUDEN CO.,LTD. All Rights Reserved.
*--------------------------------------------------------------------------------------------------------
*
* Product Description (link to TY-COMPAS)
* https://ds.yuden.co.jp/TYCOMPAS/or/detail?pn=LSXNE2424KKT1R5MN&u=M
*
* Products Name : Inductors
*
* Characteristics :
*     Inductance : 1.5 uH , SRF(min) : 94 MHz , DC Resistance(max) : 0.132 Ohm
*     Rated Current : Saturation :1550 mA , Temp Rise : 1160 mA
*     Case Size : 2.4 x 2.4 / 0.094 x 0.094 [mm/inch] , Thickness : 1 / 0.039 [mm/inch]
*     (Conditions: Temperature = 25 degC , DC Bias Current/Voltage = 0A / 0V)
*
* External Node Assignments :
*
*  1  o---GGG---o  2
*
*--------------------------------------------------------------------------------------------------------
.SubCkt LSXNE2424KKT1R5_N 1 2
****************************
Rdc 1 101 0.11
L0 101 111 1.1696u
L1 111 121 0.01694u
R1 111 121 0.0678
L2 121 131 0.087502u
R2 121 131 5.0001
L3 131 2 0.126u
R3 131 2 37.08
Rp 101 2 3.048k
Cp 101 2 0.76p
****************************
.ends LSXNE2424KKT1R5_N



* LSXNE2424KKT2R2_N     SPICE MODEL  ( General Type )
*--------------------------------------------------------------------------------------------------------
* Model Generated by TAIYO YUDEN Corporation (http://www.ty-top.com)
* Version 3.0
* TAIYO YUDEN Control No. 180111NI43EB-FBB
* Copyright(c) 2008 TAIYO YUDEN CO.,LTD. All Rights Reserved.
*--------------------------------------------------------------------------------------------------------
*
* Product Description (link to TY-COMPAS)
* https://ds.yuden.co.jp/TYCOMPAS/or/detail?pn=LSXNE2424KKT2R2MN&u=M
*
* Products Name : Inductors
*
* Characteristics :
*     Inductance : 2.2 uH , SRF(min) : 77 MHz , DC Resistance(max) : 0.18 Ohm
*     Rated Current : Saturation :1290 mA , Temp Rise : 970 mA
*     Case Size : 2.4 x 2.4 / 0.094 x 0.094 [mm/inch] , Thickness : 1 / 0.039 [mm/inch]
*     (Conditions: Temperature = 25 degC , DC Bias Current/Voltage = 0A / 0V)
*
* External Node Assignments :
*
*  1  o---GGG---o  2
*
*--------------------------------------------------------------------------------------------------------
.SubCkt LSXNE2424KKT2R2_N 1 2
****************************
Rdc 1 101 0.15
L0 101 111 1.8575u
L1 111 121 0.04312u
R1 111 121 0.1098
L2 121 131 0.088002u
R2 121 131 3.2001
L3 131 2 0.21142u
R3 131 2 38.92
Rp 101 2 4.538k
Cp 101 2 0.8p
****************************
.ends LSXNE2424KKT2R2_N



* LSXNE2424KKT3R3_N     SPICE MODEL  ( General Type )
*--------------------------------------------------------------------------------------------------------
* Model Generated by TAIYO YUDEN Corporation (http://www.ty-top.com)
* Version 3.0
* TAIYO YUDEN Control No. 180111NI43EB-FBB
* Copyright(c) 2008 TAIYO YUDEN CO.,LTD. All Rights Reserved.
*--------------------------------------------------------------------------------------------------------
*
* Product Description (link to TY-COMPAS)
* https://ds.yuden.co.jp/TYCOMPAS/or/detail?pn=LSXNE2424KKT3R3MN&u=M
*
* Products Name : Inductors
*
* Characteristics :
*     Inductance : 3.3 uH , SRF(min) : 56 MHz , DC Resistance(max) : 0.264 Ohm
*     Rated Current : Saturation :1000 mA , Temp Rise : 770 mA