Version 4
SHEET 1 1272 680
WIRE 800 -96 688 -96
WIRE 848 -96 800 -96
WIRE 944 -96 912 -96
WIRE 1008 -96 944 -96
WIRE 1056 -96 1008 -96
WIRE 1152 -96 1056 -96
WIRE 688 -16 688 -96
WIRE 800 -16 800 -96
WIRE 944 -16 944 -96
WIRE 1056 -16 1056 -96
WIRE 688 96 688 48
WIRE 688 96 592 96
WIRE 800 96 800 48
WIRE 800 96 688 96
WIRE 944 112 944 48
WIRE 1056 112 1056 64
WIRE 16 224 -64 224
WIRE 64 224 16 224
WIRE 240 224 64 224
WIRE -64 240 -64 224
WIRE 64 256 64 224
WIRE 704 256 640 256
WIRE 752 256 704 256
WIRE 640 272 640 256
WIRE 752 272 752 256
WIRE -64 352 -64 320
WIRE 64 352 64 320
WIRE 640 368 640 336
WIRE 752 384 752 352
FLAG 640 368 0
FLAG 64 352 0
FLAG -64 352 0
FLAG 704 256 out
FLAG 16 224 in
FLAG 464 96 sw
FLAG 944 112 0
FLAG 1008 -96 cp_out1
FLAG 1056 112 0
FLAG 752 384 0
FLAG 464 384 0
FLAG 400 416 0
SYMBOL Cap 48 256 R0
SYMATTR InstName C1
SYMATTR Value 1.6µ
SYMBOL Cap 624 272 R0
SYMATTR InstName C2
SYMATTR Value 7.14µ
SYMBOL Voltage -64 224 R0
WINDOW 3 -53 53 Left 2
SYMATTR Value 5
SYMATTR InstName V1
SYMATTR SpiceLine Rser=1m
SYMBOL Cap 672 -16 R0
SYMATTR InstName C3
SYMATTR Value 1µ
SYMBOL Diode 816 48 R180
WINDOW 0 24 64 Left 2
WINDOW 3 24 0 Left 2
SYMATTR InstName D1
SYMBOL Diode 848 -80 R270
WINDOW 0 32 32 VTop 2
WINDOW 3 0 32 VBottom 2
SYMATTR InstName D2
SYMBOL Cap 928 -16 R0
SYMATTR InstName C4
SYMATTR Value 1µ
SYMBOL Res 1040 -32 R0
SYMATTR InstName R2
SYMATTR Value 1.8k
SYMBOL Res 736 256 R0
SYMATTR InstName R1
SYMATTR Value 200
SYMBOL Ind 224 240 R270
WINDOW 0 32 56 VTop 2
WINDOW 3 5 56 VBottom 2
SYMATTR InstName L1
SYMBOL sw 400 384 R180
SYMATTR InstName S1
TEXT -128 472 Left 2 !.tran 12m
TEXT 648 552 Left 2 ;.step param X list 10u 20u
